data/case1197.m
function mpc = case1197
%CASE1197  Power flow data for 1197 bus distribution system
%   Please see CASEFORMAT for details on the case file format.
%
%   Power flow data for a hybrid 1197 bus distribution test system used for
%   research study. The test system is a hybrid of an existing 30 bus
%   medium voltage distribution system with several new low voltage 53 node
%   systems attached. The data is composed by Paul S. Moses modified from:
%   J. J. Grainger and S. Civanlar, "Volt/var control on distribution
%   systems with lateral branches using shunt capacitors and voltage
%   regulators. Part III: The numerical result," IEEE Transactions on
%   Power Apparatus and Systems, vol. 104, pp. 3291-3297, 1985, from which
%   data for the 30 bus medium voltage distribution system is extracted.
%   The low voltage 53 bus system is taken from actual
%   network data from a residential neighborhood which is part of Western
%   Power (Australia). The exact configuation of this system is as follows:
%   The 53 bus system is a low voltage residential network 415 V and
%   supplied from a 100 kVA 22kV/415 distribution transformer.
%   22 copies of this system are attached to the 30 bus system laterals
%   at main buses 23 to 28, 19 to 21, 10 to 15, 16 to 18, 22, and 29 to 31.
%   This system has a total of 1197 nodes. In this way, a representation
%   of common Australian distribution system layout is achieved with
%   both medium and low voltage section included in the one test system.
%   Note: The original P-Q loads of the 30 bus system [2] have been removed
%   and replaced by loads on the low voltage nodes defined in [1]. This
%   system was first used for studying smart charging algorithms of
%   Electric Vehicles in residential neighborhoods. If using this system,
%   it is recommended to cite the following:
%
%   [1] Masoum AS, Deilami S, Moses PS, Masoum MA, Abu-Siada A. Smart load
%   management of plug-in electric vehicles in distribution and residential
%   networks with charging stations for peak shaving and loss minimisation
%   considering voltage regulation. IET generation, transmission & distribution.
%   2011 Aug 1;5(8):877-88.
%   doi:10.1049/iet-gtd.2010.0574
%
%   [2] J. J. Grainger and S. Civanlar, "Volt/var control on distribution
%   systems with lateral branches using shunt capacitors and voltage
%   regulators. Part III: The numerical result," IEEE Transactions on
%   Power Apparatus and Systems, vol. 104, pp. 3291-3297, 1985.
%   doi: 10.1109/TPAS.1985.318842

%% MATPOWER Case Format : Version 2
mpc.version = '2';

%%-----  Power Flow Data  -----%%
%% system MVA base
mpc.baseMVA = 100;

%% bus data
%	bus_i	type	Pd	Qd	Gs	Bs	area	Vm	Va	baseKV	zone	Vmax	Vmin
mpc.bus = [
	1	3	0	0	0	0	1	1	0	150	1	1.05	0.95;
	2	1	0	0	0	0	1	1	0	23	1	1.05	0.95;
	3	1	0	0	0	0	1	1	0	23	1	1.05	0.95;
	4	1	0	0	0	0	1	1	0	23	1	1.05	0.95;
	5	1	0	0	0	0	1	1	0	23	1	1.05	0.95;
	6	1	0	0	0	0	1	1	0	23	1	1.05	0.95;
	7	1	0	0	0	0	1	1	0	23	1	1.05	0.95;
	8	1	0	0	0	0	1	1	0	23	1	1.05	0.95;
	9	1	0	0	0	0	1	1	0	23	1	1.05	0.95;
	10	1	0	0	0	0	1	1	0	23	1	1.05	0.95;
	11	1	0	0	0	0	1	1	0	23	1	1.05	0.95;
	12	1	0	0	0	0	1	1	0	23	1	1.05	0.95;
	13	1	0	0	0	0	1	1	0	23	1	1.05	0.95;
	14	1	0	0	0	0	1	1	0	23	1	1.05	0.95;
	15	1	0	0	0	0	1	1	0	23	1	1.05	0.95;
	16	1	0	0	0	0	1	1	0	23	1	1.05	0.95;
	17	1	0	0	0	0	1	1	0	23	1	1.05	0.95;
	18	1	0	0	0	0	1	1	0	23	1	1.05	0.95;
	19	1	0	0	0	0	1	1	0	23	1	1.05	0.95;
	20	1	0	0	0	0	1	1	0	23	1	1.05	0.95;
	21	1	0	0	0	0	1	1	0	23	1	1.05	0.95;
	22	1	0	0	0	0	1	1	0	23	1	1.05	0.95;
	23	1	0	0	0	0	1	1	0	23	1	1.05	0.95;
	24	1	0	0	0	0	1	1	0	23	1	1.05	0.95;
	25	1	0	0	0	0	1	1	0	23	1	1.05	0.95;
	26	1	0	0	0	0	1	1	0	23	1	1.05	0.95;
	27	1	0	0	0	0	1	1	0	23	1	1.05	0.95;
	28	1	0	0	0	0	1	1	0	23	1	1.05	0.95;
	29	1	0	0	0	0	1	1	0	23	1	1.05	0.95;
	30	1	0	0	0	0	1	1	0	23	1	1.05	0.95;
	31	1	0	0	0	0	1	1	0	23	1	1.05	0.95;
	32	1	0.0015	0.000493026157768295	0	0	1	1	0	0.415	1	1.05	0.95;
	33	1	0.0015	0.000493026157768295	0	0	1	1	0	0.415	1	1.05	0.95;
	34	1	0.0015	0.000493026157768295	0	0	1	1	0	0.415	1	1.05	0.95;
	35	1	0.0015	0.000493026157768295	0	0	1	1	0	0.415	1	1.05	0.95;
	36	1	0.0015	0.000493026157768295	0	0	1	1	0	0.415	1	1.05	0.95;
	37	1	0.0015	0.000493026157768295	0	0	1	1	0	0.415	1	1.05	0.95;
	38	1	0.0015	0.000493026157768295	0	0	1	1	0	0.415	1	1.05	0.95;
	39	1	0.0015	0.000493026157768295	0	0	1	1	0	0.415	1	1.05	0.95;
	40	1	0.0015	0.000493026157768295	0	0	1	1	0	0.415	1	1.05	0.95;
	41	1	0.0015	0.000493026157768295	0	0	1	1	0	0.415	1	1.05	0.95;
	42	1	0.0015	0.000493026157768295	0	0	1	1	0	0.415	1	1.05	0.95;
	43	1	0.0015	0.000493026157768295	0	0	1	1	0	0.415	1	1.05	0.95;
	44	1	0.0015	0.000493026157768295	0	0	1	1	0	0.415	1	1.05	0.95;
	45	1	0.0015	0.000493026157768295	0	0	1	1	0	0.415	1	1.05	0.95;
	46	1	0.0015	0.000493026157768295	0	0	1	1	0	0.415	1	1.05	0.95;
	47	1	0.0015	0.000493026157768295	0	0	1	1	0	0.415	1	1.05	0.95;
	48	1	0.0015	0.000493026157768295	0	0	1	1	0	0.415	1	1.05	0.95;
	49	1	0.0015	0.000493026157768295	0	0	1	1	0	0.415	1	1.05	0.95;
	50	1	0.0015	0.000493026157768295	0	0	1	1	0	0.415	1	1.05	0.95;
	51	1	0.0015	0.000493026157768295	0	0	1	1	0	0.415	1	1.05	0.95;
	52	1	0.0015	0.000493026157768295	0	0	1	1	0	0.415	1	1.05	0.95;
	53	1	0.0015	0.000493026157768295	0	0	1	1	0	0.415	1	1.05	0.95;
	54	1	0.0015	0.000493026157768295	0	0	1	1	0	0.415	1	1.05	0.95;
	55	1	0.0015	0.000493026157768295	0	0	1	1	0	0.415	1	1.05	0.95;
	56	1	0.0015	0.000493026157768295	0	0	1	1	0	0.415	1	1.05	0.95;
	57	1	0.0015	0.000493026157768295	0	0	1	1	0	0.415	1	1.05	0.95;
	58	1	0.0015	0.000493026157768295	0	0	1	1	0	0.415	1	1.05	0.95;
	59	1	0.0015	0.000493026157768295	0	0	1	1	0	0.415	1	1.05	0.95;
	60	1	0.0015	0.000493026157768295	0	0	1	1	0	0.415	1	1.05	0.95;
	61	1	0.0015	0.000493026157768295	0	0	1	1	0	0.415	1	1.05	0.95;
	62	1	0.0015	0.000493026157768295	0	0	1	1	0	0.415	1	1.05	0.95;
	63	1	0.0015	0.000493026157768295	0	0	1	1	0	0.415	1	1.05	0.95;
	64	1	0.0015	0.000493026157768295	0	0	1	1	0	0.415	1	1.05	0.95;
	65	1	0.0015	0.000493026157768295	0	0	1	1	0	0.415	1	1.05	0.95;
	66	1	0.0015	0.000493026157768295	0	0	1	1	0	0.415	1	1.05	0.95;
	67	1	0.0015	0.000493026157768295	0	0	1	1	0	0.415	1	1.05	0.95;
	68	1	0.0015	0.000493026157768295	0	0	1	1	0	0.415	1	1.05	0.95;
	69	1	0.0015	0.000493026157768295	0	0	1	1	0	0.415	1	1.05	0.95;
	70	1	0.0015	0.000493026157768295	0	0	1	1	0	0.415	1	1.05	0.95;
	71	1	0.0015	0.000493026157768295	0	0	1	1	0	0.415	1	1.05	0.95;
	72	1	0.0015	0.000493026157768295	0	0	1	1	0	0.415	1	1.05	0.95;
	73	1	0.0015	0.000493026157768295	0	0	1	1	0	0.415	1	1.05	0.95;
	74	1	0.0015	0.000493026157768295	0	0	1	1	0	0.415	1	1.05	0.95;
	75	1	0.0015	0.000493026157768295	0	0	1	1	0	0.415	1	1.05	0.95;
	76	1	0.0015	0.000493026157768295	0	0	1	1	0	0.415	1	1.05	0.95;
	77	1	0.0015	0.000493026157768295	0	0	1	1	0	0.415	1	1.05	0.95;
	78	1	0.0015	0.000493026157768295	0	0	1	1	0	0.415	1	1.05	0.95;
	79	1	0.0015	0.000493026157768295	0	0	1	1	0	0.415	1	1.05	0.95;
	80	1	0.0015	0.000493026157768295	0	0	1	1	0	0.415	1	1.05	0.95;
	81	1	0.0015	0.000493026157768295	0	0	1	1	0	0.415	1	1.05	0.95;
	82	1	0.0015	0.000493026157768295	0	0	1	1	0	0.415	1	1.05	0.95;
	83	1	0.0015	0.000493026157768295	0	0	1	1	0	0.415	1	1.05	0.95;
	84	1	0.0015	0.000493026157768295	0	0	1	1	0	0.415	1	1.05	0.95;
	85	1	0.0015	0.000493026157768295	0	0	1	1	0	0.415	1	1.05	0.95;
	86	1	0.0015	0.000493026157768295	0	0	1	1	0	0.415	1	1.05	0.95;
	87	1	0.0015	0.000493026157768295	0	0	1	1	0	0.415	1	1.05	0.95;
	88	1	0.0015	0.000493026157768295	0	0	1	1	0	0.415	1	1.05	0.95;
	89	1	0.0015	0.000493026157768295	0	0	1	1	0	0.415	1	1.05	0.95;
	90	1	0.0015	0.000493026157768295	0	0	1	1	0	0.415	1	1.05	0.95;
	91	1	0.0015	0.000493026157768295	0	0	1	1	0	0.415	1	1.05	0.95;
	92	1	0.0015	0.000493026157768295	0	0	1	1	0	0.415	1	1.05	0.95;
	93	1	0.0015	0.000493026157768295	0	0	1	1	0	0.415	1	1.05	0.95;
	94	1	0.0015	0.000493026157768295	0	0	1	1	0	0.415	1	1.05	0.95;
	95	1	0.0015	0.000493026157768295	0	0	1	1	0	0.415	1	1.05	0.95;
	96	1	0.0015	0.000493026157768295	0	0	1	1	0	0.415	1	1.05	0.95;
	97	1	0.0015	0.000493026157768295	0	0	1	1	0	0.415	1	1.05	0.95;
	98	1	0.0015	0.000493026157768295	0	0	1	1	0	0.415	1	1.05	0.95;
	99	1	0.0015	0.000493026157768295	0	0	1	1	0	0.415	1	1.05	0.95;
	100	1	0.0015	0.000493026157768295	0	0	1	1	0	0.415	1	1.05	0.95;
	101	1	0.0015	0.000493026157768295	0	0	1	1	0	0.415	1	1.05	0.95;
	102	1	0.0015	0.000493026157768295	0	0	1	1	0	0.415	1	1.05	0.95;
	103	1	0.0015	0.000493026157768295	0	0	1	1	0	0.415	1	1.05	0.95;
	104	1	0.0015	0.000493026157768295	0	0	1	1	0	0.415	1	1.05	0.95;
	105	1	0.0015	0.000493026157768295	0	0	1	1	0	0.415	1	1.05	0.95;
	106	1	0.0015	0.000493026157768295	0	0	1	1	0	0.415	1	1.05	0.95;
	107	1	0.0015	0.000493026157768295	0	0	1	1	0	0.415	1	1.05	0.95;
	108	1	0.0015	0.000493026157768295	0	0	1	1	0	0.415	1	1.05	0.95;
	109	1	0.0015	0.000493026157768295	0	0	1	1	0	0.415	1	1.05	0.95;
	110	1	0.0015	0.000493026157768295	0	0	1	1	0	0.415	1	1.05	0.95;
	111	1	0.0015	0.000493026157768295	0	0	1	1	0	0.415	1	1.05	0.95;
	112	1	0.0015	0.000493026157768295	0	0	1	1	0	0.415	1	1.05	0.95;
	113	1	0.0015	0.000493026157768295	0	0	1	1	0	0.415	1	1.05	0.95;
	114	1	0.0015	0.000493026157768295	0	0	1	1	0	0.415	1	1.05	0.95;
	115	1	0.0015	0.000493026157768295	0	0	1	1	0	0.415	1	1.05	0.95;
	116	1	0.0015	0.000493026157768295	0	0	1	1	0	0.415	1	1.05	0.95;
	117	1	0.0015	0.000493026157768295	0	0	1	1	0	0.415	1	1.05	0.95;
	118	1	0.0015	0.000493026157768295	0	0	1	1	0	0.415	1	1.05	0.95;
	119	1	0.0015	0.000493026157768295	0	0	1	1	0	0.415	1	1.05	0.95;
	120	1	0.0015	0.000493026157768295	0	0	1	1	0	0.415	1	1.05	0.95;
	121	1	0.0015	0.000493026157768295	0	0	1	1	0	0.415	1	1.05	0.95;
	122	1	0.0015	0.000493026157768295	0	0	1	1	0	0.415	1	1.05	0.95;
	123	1	0.0015	0.000493026157768295	0	0	1	1	0	0.415	1	1.05	0.95;
	124	1	0.0015	0.000493026157768295	0	0	1	1	0	0.415	1	1.05	0.95;
	125	1	0.0015	0.000493026157768295	0	0	1	1	0	0.415	1	1.05	0.95;
	126	1	0.0015	0.000493026157768295	0	0	1	1	0	0.415	1	1.05	0.95;
	127	1	0.0015	0.000493026157768295	0	0	1	1	0	0.415	1	1.05	0.95;
	128	1	0.0015	0.000493026157768295	0	0	1	1	0	0.415	1	1.05	0.95;
	129	1	0.0015	0.000493026157768295	0	0	1	1	0	0.415	1	1.05	0.95;
	130	1	0.0015	0.000493026157768295	0	0	1	1	0	0.415	1	1.05	0.95;
	131	1	0.0015	0.000493026157768295	0	0	1	1	0	0.415	1	1.05	0.95;
	132	1	0.0015	0.000493026157768295	0	0	1	1	0	0.415	1	1.05	0.95;
	133	1	0.0015	0.000493026157768295	0	0	1	1	0	0.415	1	1.05	0.95;
	134	1	0.0015	0.000493026157768295	0	0	1	1	0	0.415	1	1.05	0.95;
	135	1	0.0015	0.000493026157768295	0	0	1	1	0	0.415	1	1.05	0.95;
	136	1	0.0015	0.000493026157768295	0	0	1	1	0	0.415	1	1.05	0.95;
	137	1	0.0015	0.000493026157768295	0	0	1	1	0	0.415	1	1.05	0.95;
	138	1	0.0015	0.000493026157768295	0	0	1	1	0	0.415	1	1.05	0.95;
	139	1	0.0015	0.000493026157768295	0	0	1	1	0	0.415	1	1.05	0.95;
	140	1	0.0015	0.000493026157768295	0	0	1	1	0	0.415	1	1.05	0.95;
	141	1	0.0015	0.000493026157768295	0	0	1	1	0	0.415	1	1.05	0.95;
	142	1	0.0015	0.000493026157768295	0	0	1	1	0	0.415	1	1.05	0.95;
	143	1	0.0015	0.000493026157768295	0	0	1	1	0	0.415	1	1.05	0.95;
	144	1	0.0015	0.000493026157768295	0	0	1	1	0	0.415	1	1.05	0.95;
	145	1	0.0015	0.000493026157768295	0	0	1	1	0	0.415	1	1.05	0.95;
	146	1	0.0015	0.000493026157768295	0	0	1	1	0	0.415	1	1.05	0.95;
	147	1	0.0015	0.000493026157768295	0	0	1	1	0	0.415	1	1.05	0.95;
	148	1	0.0015	0.000493026157768295	0	0	1	1	0	0.415	1	1.05	0.95;
	149	1	0.0015	0.000493026157768295	0	0	1	1	0	0.415	1	1.05	0.95;
	150	1	0.0015	0.000493026157768295	0	0	1	1	0	0.415	1	1.05	0.95;
	151	1	0.0015	0.000493026157768295	0	0	1	1	0	0.415	1	1.05	0.95;
	152	1	0.0015	0.000493026157768295	0	0	1	1	0	0.415	1	1.05	0.95;
	153	1	0.0015	0.000493026157768295	0	0	1	1	0	0.415	1	1.05	0.95;
	154	1	0.0015	0.000493026157768295	0	0	1	1	0	0.415	1	1.05	0.95;
	155	1	0.0015	0.000493026157768295	0	0	1	1	0	0.415	1	1.05	0.95;
	156	1	0.0015	0.000493026157768295	0	0	1	1	0	0.415	1	1.05	0.95;
	157	1	0.0015	0.000493026157768295	0	0	1	1	0	0.415	1	1.05	0.95;
	158	1	0.0015	0.000493026157768295	0	0	1	1	0	0.415	1	1.05	0.95;
	159	1	0.0015	0.000493026157768295	0	0	1	1	0	0.415	1	1.05	0.95;
	160	1	0.0015	0.000493026157768295	0	0	1	1	0	0.415	1	1.05	0.95;
	161	1	0.0015	0.000493026157768295	0	0	1	1	0	0.415	1	1.05	0.95;
	162	1	0.0015	0.000493026157768295	0	0	1	1	0	0.415	1	1.05	0.95;
	163	1	0.0015	0.000493026157768295	0	0	1	1	0	0.415	1	1.05	0.95;
	164	1	0.0015	0.000493026157768295	0	0	1	1	0	0.415	1	1.05	0.95;
	165	1	0.0015	0.000493026157768295	0	0	1	1	0	0.415	1	1.05	0.95;
	166	1	0.0015	0.000493026157768295	0	0	1	1	0	0.415	1	1.05	0.95;
	167	1	0.0015	0.000493026157768295	0	0	1	1	0	0.415	1	1.05	0.95;
	168	1	0.0015	0.000493026157768295	0	0	1	1	0	0.415	1	1.05	0.95;
	169	1	0.0015	0.000493026157768295	0	0	1	1	0	0.415	1	1.05	0.95;
	170	1	0.0015	0.000493026157768295	0	0	1	1	0	0.415	1	1.05	0.95;
	171	1	0.0015	0.000493026157768295	0	0	1	1	0	0.415	1	1.05	0.95;
	172	1	0.0015	0.000493026157768295	0	0	1	1	0	0.415	1	1.05	0.95;
	173	1	0.0015	0.000493026157768295	0	0	1	1	0	0.415	1	1.05	0.95;
	174	1	0.0015	0.000493026157768295	0	0	1	1	0	0.415	1	1.05	0.95;
	175	1	0.0015	0.000493026157768295	0	0	1	1	0	0.415	1	1.05	0.95;
	176	1	0.0015	0.000493026157768295	0	0	1	1	0	0.415	1	1.05	0.95;
	177	1	0.0015	0.000493026157768295	0	0	1	1	0	0.415	1	1.05	0.95;
	178	1	0.0015	0.000493026157768295	0	0	1	1	0	0.415	1	1.05	0.95;
	179	1	0.0015	0.000493026157768295	0	0	1	1	0	0.415	1	1.05	0.95;
	180	1	0.0015	0.000493026157768295	0	0	1	1	0	0.415	1	1.05	0.95;
	181	1	0.0015	0.000493026157768295	0	0	1	1	0	0.415	1	1.05	0.95;
	182	1	0.0015	0.000493026157768295	0	0	1	1	0	0.415	1	1.05	0.95;
	183	1	0.0015	0.000493026157768295	0	0	1	1	0	0.415	1	1.05	0.95;
	184	1	0.0015	0.000493026157768295	0	0	1	1	0	0.415	1	1.05	0.95;
	185	1	0.0015	0.000493026157768295	0	0	1	1	0	0.415	1	1.05	0.95;
	186	1	0.0015	0.000493026157768295	0	0	1	1	0	0.415	1	1.05	0.95;
	187	1	0.0015	0.000493026157768295	0	0	1	1	0	0.415	1	1.05	0.95;
	188	1	0.0015	0.000493026157768295	0	0	1	1	0	0.415	1	1.05	0.95;
	189	1	0.0015	0.000493026157768295	0	0	1	1	0	0.415	1	1.05	0.95;
	190	1	0.0015	0.000493026157768295	0	0	1	1	0	0.415	1	1.05	0.95;
	191	1	0.0015	0.000493026157768295	0	0	1	1	0	0.415	1	1.05	0.95;
	192	1	0.0015	0.000493026157768295	0	0	1	1	0	0.415	1	1.05	0.95;
	193	1	0.0015	0.000493026157768295	0	0	1	1	0	0.415	1	1.05	0.95;
	194	1	0.0015	0.000493026157768295	0	0	1	1	0	0.415	1	1.05	0.95;
	195	1	0.0015	0.000493026157768295	0	0	1	1	0	0.415	1	1.05	0.95;
	196	1	0.0015	0.000493026157768295	0	0	1	1	0	0.415	1	1.05	0.95;
	197	1	0.0015	0.000493026157768295	0	0	1	1	0	0.415	1	1.05	0.95;
	198	1	0.0015	0.000493026157768295	0	0	1	1	0	0.415	1	1.05	0.95;
	199	1	0.0015	0.000493026157768295	0	0	1	1	0	0.415	1	1.05	0.95;
	200	1	0.0015	0.000493026157768295	0	0	1	1	0	0.415	1	1.05	0.95;
...
];

%% generator data
%	bus	Pg	Qg	Qmax	Qmin	Vg	mBase	status	Pmax	Pmin	Pc1	Pc2	Qc1min	Qc1max	Qc2min	Qc2max	ramp_agc	ramp_10	ramp_30	ramp_q	apf
mpc.gen = [
	1	0	0	300	-250	1	100	1	600	10	0	0	0	0	0	0	0	0	0	0	0;
];

%% branch data
%	fbus	tbus	r	x	b	rateA	rateB	rateC	ratio	angle	status	angmin	angmax
mpc.branch = [
	1	2	0.0004	0.0069	0	0	0	0	1	0	1	-360	360;
	2	3	0.0527	0.0028	0	0	0	0	0	0	1	-360	360;
	3	4	0.0839	0.083	0	0	0	0	0	0	1	-360	360;
	4	5	0.1633	0.142	0	0	0	0	0	0	1	-360	360;
	5	6	0.1633	0.142	0	0	0	0	0	0	1	-360	360;
	6	7	0.2597	0.1463	0	0	0	0	0	0	1	-360	360;
	7	8	0.2597	0.1463	0	0	0	0	0	0	1	-360	360;
	8	9	0.2597	0.1463	0	0	0	0	0	0	1	-360	360;
	9	10	0.2597	0.1463	0	0	0	0	0	0	1	-360	360;
	10	11	0.2597	0.1463	0	0	0	0	0	0	1	-360	360;
	11	12	0.2597	0.1463	0	0	0	0	0	0	1	-360	360;
	12	13	0.2597	0.1463	0	0	0	0	0	0	1	-360	360;
	13	14	0.2597	0.1463	0	0	0	0	0	0	1	-360	360;
	14	15	0.2597	0.1463	0	0	0	0	0	0	1	-360	360;
	9	16	0.1633	0.142	0	0	0	0	0	0	1	-360	360;
	16	17	0.2597	0.1463	0	0	0	0	0	0	1	-360	360;
	17	18	0.2597	0.1463	0	0	0	0	0	0	1	-360	360;
	7	19	0.1633	0.142	0	0	0	0	0	0	1	-360	360;
	19	20	0.1633	0.142	0	0	0	0	0	0	1	-360	360;
	20	21	0.2597	0.1463	0	0	0	0	0	0	1	-360	360;
	7	22	0.1633	0.142	0	0	0	0	0	0	1	-360	360;
	4	23	0.0839	0.083	0	0	0	0	0	0	1	-360	360;
	23	24	0.0839	0.083	0	0	0	0	0	0	1	-360	360;
	24	25	0.1633	0.142	0	0	0	0	0	0	1	-360	360;
	25	26	0.1633	0.142	0	0	0	0	0	0	1	-360	360;
	26	27	0.1633	0.142	0	0	0	0	0	0	1	-360	360;
	27	28	0.2597	0.1463	0	0	0	0	0	0	1	-360	360;
	2	29	0.0527	0.0028	0	0	0	0	0	0	1	-360	360;
	29	30	0.0527	0.0028	0	0	0	0	0	0	1	-360	360;
	30	31	0.2597	0.1463	0	0	0	0	0	0	1	-360	360;
	23	32	0.2597	38	0	0	0	0	1	0	1	-360	360;
	24	85	0.2597	38	0	0	0	0	1	0	1	-360	360;
	25	138	0.2597	38	0	0	0	0	1	0	1	-360	360;
	26	191	0.2597	38	0	0	0	0	1	0	1	-360	360;
	27	244	0.2597	38	0	0	0	0	1	0	1	-360	360;
	28	297	0.2597	38	0	0	0	0	1	0	1	-360	360;
	19	350	0.2597	38	0	0	0	0	1	0	1	-360	360;
	20	403	0.2597	38	0	0	0	0	1	0	1	-360	360;
	21	456	0.2597	38	0	0	0	0	1	0	1	-360	360;
	10	509	0.2597	38	0	0	0	0	1	0	1	-360	360;
	11	562	0.2597	38	0	0	0	0	1	0	1	-360	360;
	12	615	0.2597	38	0	0	0	0	1	0	1	-360	360;
	13	668	0.2597	38	0	0	0	0	1	0	1	-360	360;
	14	721	0.2597	38	0	0	0	0	1	0	1	-360	360;
	15	774	0.2597	38	0	0	0	0	1	0	1	-360	360;
	16	827	0.2597	38	0	0	0	0	1	0	1	-360	360;
	17	880	0.2597	38	0	0	0	0	1	0	1	-360	360;
	18	933	0.2597	38	0	0	0	0	1	0	1	-360	360;
	22	986	0.2597	38	0	0	0	0	1	0	1	-360	360;
	29	1039	0.2597	38	0	0	0	0	1	0	1	-360	360;
	30	1092	0.2597	38	0	0	0	0	1	0	1	-360	360;
	31	1145	0.2597	38	0	0	0	0	1	0	1	-360	360;
	32	33	24.06819	8.397016	0	0	0	0	0	0	1	-360	360;
	33	35	24.623522	10.988184	0	0	0	0	0	0	1	-360	360;
	35	37	25.757085	11.494034	0	0	0	0	0	0	1	-360	360;
	37	39	21.434658	9.565162	0	0	0	0	0	0	1	-360	360;
	39	40	30.211189	13.481666	0	0	0	0	0	0	1	-360	360;
	40	43	30.400116	13.565975	0	0	0	0	0	0	1	-360	360;
	43	44	0.298127	0.113398	0	0	0	0	0	0	1	-360	360;
	43	46	116.268834	11.595459	0	0	0	0	0	0	1	-360	360;
	43	45	1006.825374	100.410422	0	0	0	0	0	0	1	-360	360;
	40	42	151.372913	15.09638	0	0	0	0	0	0	1	-360	360;
	40	41	789.970678	78.783562	0	0	0	0	0	0	1	-360	360;
	37	38	81.422558	8.12025	0	0	0	0	0	0	1	-360	360;
	35	36	450.745827	44.952759	0	0	0	0	0	0	1	-360	360;
	33	34	347.044854	34.61069	0	0	0	0	0	0	1	-360	360;
	32	47	9.464363	3.599942	0	0	0	0	0	0	1	-360	360;
	47	52	24.06819	8.397016	0	0	0	0	0	0	1	-360	360;
	52	54	24.623522	10.988184	0	0	0	0	0	0	1	-360	360;
	54	56	25.757085	11.494034	0	0	0	0	0	0	1	-360	360;
	56	58	21.434658	9.565162	0	0	0	0	0	0	1	-360	360;
	58	59	30.211189	13.481666	0	0	0	0	0	0	1	-360	360;
	59	62	30.400116	13.565975	0	0	0	0	0	0	1	-360	360;
	62	63	0.298127	0.113398	0	0	0	0	0	0	1	-360	360;
	62	65	116.268834	11.595459	0	0	0	0	0	0	1	-360	360;
	62	64	1006.825374	100.410422	0	0	0	0	0	0	1	-360	360;
	59	61	151.372913	15.09638	0	0	0	0	0	0	1	-360	360;
	59	60	789.970678	78.783562	0	0	0	0	0	0	1	-360	360;
	56	57	81.422558	8.12025	0	0	0	0	0	0	1	-360	360;
	54	55	450.745827	44.952759	0	0	0	0	0	0	1	-360	360;
	52	53	347.044854	34.61069	0	0	0	0	0	0	1	-360	360;
	47	48	82.61847	28.824294	0	0	0	0	0	0	1	-360	360;
	48	49	48.605835	16.957817	0	0	0	0	0	0	1	-360	360;
	49	50	181.363913	18.087374	0	0	0	0	0	0	1	-360	360;
	47	51	9.464363	3.599942	0	0	0	0	0	0	1	-360	360;
	32	66	9.464363	3.599942	0	0	0	0	0	0	1	-360	360;
	66	71	24.06819	8.397016	0	0	0	0	0	0	1	-360	360;
	71	73	24.623522	10.988184	0	0	0	0	0	0	1	-360	360;
	73	75	25.757085	11.494034	0	0	0	0	0	0	1	-360	360;
	75	77	21.434658	9.565162	0	0	0	0	0	0	1	-360	360;
	77	78	30.211189	13.481666	0	0	0	0	0	0	1	-360	360;
	78	81	30.400116	13.565975	0	0	0	0	0	0	1	-360	360;
	81	82	0.298127	0.113398	0	0	0	0	0	0	1	-360	360;
	81	84	116.268834	11.595459	0	0	0	0	0	0	1	-360	360;
	81	83	1006.825374	100.410422	0	0	0	0	0	0	1	-360	360;
	78	80	151.372913	15.09638	0	0	0	0	0	0	1	-360	360;
	78	79	789.970678	78.783562	0	0	0	0	0	0	1	-360	360;
	75	76	81.422558	8.12025	0	0	0	0	0	0	1	-360	360;
	73	74	450.745827	44.952759	0	0	0	0	0	0	1	-360	360;
	71	72	347.044854	34.61069	0	0	0	0	0	0	1	-360	360;
	66	67	82.61847	28.824294	0	0	0	0	0	0	1	-360	360;
	67	68	48.605835	16.957817	0	0	0	0	0	0	1	-360	360;
	68	69	181.363913	18.087374	0	0	0	0	0	0	1	-360	360;
	66	70	9.464363	3.599942	0	0	0	0	0	0	1	-360	360;
	85	86	24.06819	8.397016	0	0	0	0	0	0	1	-360	360;
	86	88	24.623522	10.988184	0	0	0	0	0	0	1	-360	360;
	88	90	25.757085	11.494034	0	0	0	0	0	0	1	-360	360;
	90	92	21.434658	9.565162	0	0	0	0	0	0	1	-360	360;
	92	93	30.211189	13.481666	0	0	0	0	0	0	1	-360	360;
	93	96	30.400116	13.565975	0	0	0	0	0	0	1	-360	360;
	96	97	0.298127	0.113398	0	0	0	0	0	0	1	-360	360;
	96	99	116.268834	11.595459	0	0	0	0	0	0	1	-360	360;
	96	98	1006.825374	100.410422	0	0	0	0	0	0	1	-360	360;
	93	95	151.372913	15.09638	0	0	0	0	0	0	1	-360	360;
	93	94	789.970678	78.783562	0	0	0	0	0	0	1	-360	360;
	90	91	81.422558	8.12025	0	0	0	0	0	0	1	-360	360;
	88	89	450.745827	44.952759	0	0	0	0	0	0	1	-360	360;
	86	87	347.044854	34.61069	0	0	0	0	0	0	1	-360	360;
	85	100	9.464363	3.599942	0	0	0	0	0	0	1	-360	360;
	100	105	24.06819	8.397016	0	0	0	0	0	0	1	-360	360;
	105	107	24.623522	10.988184	0	0	0	0	0	0	1	-360	360;
	107	109	25.757085	11.494034	0	0	0	0	0	0	1	-360	360;
	109	111	21.434658	9.565162	0	0	0	0	0	0	1	-360	360;
	111	112	30.211189	13.481666	0	0	0	0	0	0	1	-360	360;
	112	115	30.400116	13.565975	0	0	0	0	0	0	1	-360	360;
	115	116	0.298127	0.113398	0	0	0	0	0	0	1	-360	360;
	115	118	116.268834	11.595459	0	0	0	0	0	0	1	-360	360;
	115	117	1006.825374	100.410422	0	0	0	0	0	0	1	-360	360;
	112	114	151.372913	15.09638	0	0	0	0	0	0	1	-360	360;
	112	113	789.970678	78.783562	0	0	0	0	0	0	1	-360	360;
	109	110	81.422558	8.12025	0	0	0	0	0	0	1	-360	360;
	107	108	450.745827	44.952759	0	0	0	0	0	0	1	-360	360;
	105	106	347.044854	34.61069	0	0	0	0	0	0	1	-360	360;
	100	101	82.61847	28.824294	0	0	0	0	0	0	1	-360	360;
	101	102	48.605835	16.957817	0	0	0	0	0	0	1	-360	360;
	102	103	181.363913	18.087374	0	0	0	0	0	0	1	-360	360;
	100	104	9.464363	3.599942	0	0	0	0	0	0	1	-360	360;
	85	119	9.464363	3.599942	0	0	0	0	0	0	1	-360	360;
	119	124	24.06819	8.397016	0	0	0	0	0	0	1	-360	360;
	124	126	24.623522	10.988184	0	0	0	0	0	0	1	-360	360;
	126	128	25.757085	11.494034	0	0	0	0	0	0	1	-360	360;
	128	130	21.434658	9.565162	0	0	0	0	0	0	1	-360	360;
	130	131	30.211189	13.481666	0	0	0	0	0	0	1	-360	360;
	131	134	30.400116	13.565975	0	0	0	0	0	0	1	-360	360;
	134	135	0.298127	0.113398	0	0	0	0	0	0	1	-360	360;
	134	137	116.268834	11.595459	0	0	0	0	0	0	1	-360	360;
	134	136	1006.825374	100.410422	0	0	0	0	0	0	1	-360	360;
	131	133	151.372913	15.09638	0	0	0	0	0	0	1	-360	360;
	131	132	789.970678	78.783562	0	0	0	0	0	0	1	-360	360;
	128	129	81.422558	8.12025	0	0	0	0	0	0	1	-360	360;
	126	127	450.745827	44.952759	0	0	0	0	0	0	1	-360	360;
	124	125	347.044854	34.61069	0	0	0	0	0	0	1	-360	360;
	119	120	82.61847	28.824294	0	0	0	0	0	0	1	-360	360;
	120	121	48.605835	16.957817	0	0	0	0	0	0	1	-360	360;
	121	122	181.363913	18.087374	0	0	0	0	0	0	1	-360	360;
	119	123	9.464363	3.599942	0	0	0	0	0	0	1	-360	360;
	138	139	24.06819	8.397016	0	0	0	0	0	0	1	-360	360;
	139	141	24.623522	10.988184	0	0	0	0	0	0	1	-360	360;
	141	143	25.757085	11.494034	0	0	0	0	0	0	1	-360	360;
	143	145	21.434658	9.565162	0	0	0	0	0	0	1	-360	360;
	145	146	30.211189	13.481666	0	0	0	0	0	0	1	-360	360;
	146	149	30.400116	13.565975	0	0	0	0	0	0	1	-360	360;
	149	150	0.298127	0.113398	0	0	0	0	0	0	1	-360	360;
	149	152	116.268834	11.595459	0	0	0	0	0	0	1	-360	360;
	149	151	1006.825374	100.410422	0	0	0	0	0	0	1	-360	360;
	146	148	151.372913	15.09638	0	0	0	0	0	0	1	-360	360;
	146	147	789.970678	78.783562	0	0	0	0	0	0	1	-360	360;
	143	144	81.422558	8.12025	0	0	0	0	0	0	1	-360	360;
	141	142	450.745827	44.952759	0	0	0	0	0	0	1	-360	360;
	139	140	347.044854	34.61069	0	0	0	0	0	0	1	-360	360;
	138	153	9.464363	3.599942	0	0	0	0	0	0	1	-360	360;
	153	158	24.06819	8.397016	0	0	0	0	0	0	1	-360	360;
	158	160	24.623522	10.988184	0	0	0	0	0	0	1	-360	360;
	160	162	25.757085	11.494034	0	0	0	0	0	0	1	-360	360;
	162	164	21.434658	9.565162	0	0	0	0	0	0	1	-360	360;
	164	165	30.211189	13.481666	0	0	0	0	0	0	1	-360	360;
	165	168	30.400116	13.565975	0	0	0	0	0	0	1	-360	360;
	168	169	0.298127	0.113398	0	0	0	0	0	0	1	-360	360;
	168	171	116.268834	11.595459	0	0	0	0	0	0	1	-360	360;
	168	170	1006.825374	100.410422	0	0	0	0	0	0	1	-360	360;
	165	167	151.372913	15.09638	0	0	0	0	0	0	1	-360	360;
	165	166	789.970678	78.783562	0	0	0	0	0	0	1	-360	360;
	162	163	81.422558	8.12025	0	0	0	0	0	0	1	-360	360;
	160	161	450.745827	44.952759	0	0	0	0	0	0	1	-360	360;
	158	159	347.044854	34.61069	0	0	0	0	0	0	1	-360	360;
	153	154	82.61847	28.824294	0	0	0	0	0	0	1	-360	360;
	154	155	48.605835	16.957817	0	0	0	0	0	0	1	-360	360;
	155	156	181.363913	18.087374	0	0	0	0	0	0	1	-360	360;
	153	157	9.464363	3.599942	0	0	0	0	0	0	1	-360	360;
	138	172	9.464363	3.599942	0	0	0	0	0	0	1	-360	360;
	172	177	24.06819	8.397016	0	0	0	0	0	0	1	-360	360;
	177	179	24.623522	10.988184	0	0	0	0	0	0	1	-360	360;
	179	181	25.757085	11.494034	0	0	0	0	0	0	1	-360	360;
	181	183	21.434658	9.565162	0	0	0	0	0	0	1	-360	360;
	183	184	30.211189	13.481666	0	0	0	0	0	0	1	-360	360;
	184	187	30.400116	13.565975	0	0	0	0	0	0	1	-360	360;
	187	188	0.298127	0.113398	0	0	0	0	0	0	1	-360	360;
	187	190	116.268834	11.595459	0	0	0	0	0	0	1	-360	360;
	187	189	1006.825374	100.410422	0	0	0	0	0	0	1	-360	360;
	184	186	151.372913	15.09638	0	0	0	0	0	0	1	-360	360;
...
];

%%-----  OPF Data  -----%%
%% generator cost data
%	1	startup	shutdown	n	x1	y1	...	xn	yn
%	2	startup	shutdown	n	c(n-1)	...	c0
mpc.gencost = [
	2	0	0	3	0	20	0;
];
